/*--------------------------------*- C++ -*----------------------------------*\
| =========                 |                                                 |
| \\      /  F ield         | foam-extend: Open Source CFD                    |
|  \\    /   O peration     | Version:     4.0                                |
|   \\  /    A nd           | Web:         http://www.foam-extend.org         |
|    \\/     M anipulation  |                                                 |
\*---------------------------------------------------------------------------*/
FoamFile
{
    version     2.0;
    format      ascii;
    class       dictionary;
    location    "system";
    object      funkySetFieldsDict;
}
// * * * * * * * * * * * * * * * * * * * * * * * * * * * * * * * * * * * * * //

expressions
(
    potential
    {
       field potential;
       keepPatches true;
       expression "-2.0*sin(sqrt(2.0*pi)*sqrt(pow(pos().x,2)+pow(pos().y,2)+pow(pos().z,2)))/(sqrt(2.0*pi)*sqrt(pow(pos().x,2)+pow(pos().y,2)+pow(pos().z,2)))";
    }
    p
    {
       field p;
       keepPatches true;
       expression "pow(sin(sqrt(2.0*pi)*sqrt(pow(pos().x,2)+pow(pos().y,2)+pow(pos().z,2)))/(sqrt(2.0*pi)*sqrt(pow(pos().x,2)+pow(pos().y,2)+pow(pos().z,2))),2)";
    }
    rho
    {
       field rho;
       keepPatches true;
       expression "sin(sqrt(2.0*pi)*sqrt(pow(pos().x,2)+pow(pos().y,2)+pow(pos().z,2)))/(sqrt(2.0*pi)*sqrt(pow(pos().x,2)+pow(pos().y,2)+pow(pos().z,2)))";
    }
    T
    {
       field T;
       keepPatches true;
       expression "7.0/5.0*sin(sqrt(2.0*pi)*sqrt(pow(pos().x,2)+pow(pos().y,2)+pow(pos().z,2)))/(sqrt(2.0*pi)*sqrt(pow(pos().x,2)+pow(pos().y,2)+pow(pos().z,2)))";
    }
);
