/*--------------------------------*- C++ -*----------------------------------*\
| =========                 |                                                 |
| \\      /  F ield         | OpenFOAM: The Open Source CFD Toolbox           |
|  \\    /   O peration     | Version:  plus                                  |
|   \\  /    A nd           | Web:      www.OpenFOAM.com                      |
|    \\/     M anipulation  |                                                 |
\*---------------------------------------------------------------------------*/
FoamFile
{
    version     2.0;
    format      ascii;
    class       dictionary;
    object      blockMeshDict;
}
// * * * * * * * * * * * * * * * * * * * * * * * * * * * * * * * * * * * * * //

scale   1;

vertices
(
    (0 -2 -0.05)
    (4 -2 -0.05)
    (4 2 -0.05)
    (0 2 -0.05)
    (0 -2 0.05)
    (4 -2 0.05)
    (4 2 0.05)
    (0 2 0.05)
);

blocks
(
    hex (0 1 2 3 4 5 6 7) (400 400 1) simpleGrading (1 1 1)
);

edges
(
);

boundary
(
    inlet
    {
        type patch;
        faces
        (
            (3 7 6 2)
        );
    }
    outlet
    {
        type patch;
        faces
        (
            (1 5 4 0)
        );
    }
    left
    {
        type cyclic;
        neighbourPatch  right;
        transform       translational;
        separationVector (4 0 0);
        faces
        (
            (0 4 7 3)
        );
    }
    right
    {
        type cyclic;
        neighbourPatch  left;
        transform       translational;
        separationVector (-4 0 0);
        faces
        (
            (2 6 5 1)
        );
    }
    frontAndBack
    {
        type empty;
        faces
        (
            (0 3 2 1)
            (4 5 6 7)
        );
    }
);

mergePatchPairs
(
);


// ************************************************************************* //
